<?xml version="1.0" encoding="UTF-8"?>

<!-- generated on 2026-03-22T12:47:22.571516-05:00 by Eclipse SUMO netconvert 1.26.0
<netconvertConfiguration xmlns:xsi="http://www.w3.org/2001/XMLSchema-instance" xsi:noNamespaceSchemaLocation="http://sumo.dlr.de/xsd/netconvertConfiguration.xsd">

    <input>
        <node-files value="e:/cps-smart-intersection/sumo/net/intersection.nod.xml"/>
        <edge-files value="e:/cps-smart-intersection/sumo/net/intersection_ped.edg.xml"/>
        <connection-files value="e:/cps-smart-intersection/sumo/net/intersection_ped.con.xml"/>
        <tllogic-files value="e:/cps-smart-intersection/sumo/net/intersection_ped.tll.xml"/>
    </input>

    <output>
        <output-file value="e:/cps-smart-intersection/sumo/net/intersection_ped.net.xml"/>
    </output>

</netconvertConfiguration>
-->

<net version="1.20" junctionCornerDetail="5" limitTurnSpeed="5.50" xmlns:xsi="http://www.w3.org/2001/XMLSchema-instance" xsi:noNamespaceSchemaLocation="http://sumo.dlr.de/xsd/net_file.xsd">

    <location netOffset="200.00,200.00" convBoundary="0.00,0.00,400.00,400.00" origBoundary="-200.00,-200.00,200.00,200.00" projParameter="!"/>

    <edge id=":J0_0" function="internal">
        <lane id=":J0_0_0" index="0" disallow="pedestrian" speed="6.76" length="5.59" shape="198.40,207.70 198.02,205.03 196.88,203.12 196.30,202.78"/>
    </edge>
    <edge id=":J0_1" function="internal">
        <lane id=":J0_1_0" index="0" disallow="pedestrian" speed="13.89" length="15.40" shape="198.40,207.70 198.40,192.30"/>
    </edge>
    <edge id=":J0_2" function="internal">
        <lane id=":J0_2_0" index="0" disallow="pedestrian" speed="8.21" length="4.23" shape="198.40,207.70 198.98,203.63 199.04,203.53"/>
    </edge>
    <edge id=":J0_3" function="internal">
        <lane id=":J0_3_0" index="0" disallow="pedestrian" speed="3.65" length="1.44" shape="198.40,207.70 199.20,206.50"/>
    </edge>
    <edge id=":J0_16" function="internal">
        <lane id=":J0_16_0" index="0" disallow="pedestrian" speed="6.76" length="4.25" shape="196.30,202.78 194.97,201.98 192.30,201.60"/>
    </edge>
    <edge id=":J0_17" function="internal">
        <lane id=":J0_17_0" index="0" disallow="pedestrian" speed="8.21" length="10.77" shape="199.04,203.53 200.73,200.72 203.63,198.98 207.70,198.40"/>
    </edge>
    <edge id=":J0_18" function="internal">
        <lane id=":J0_18_0" index="0" disallow="pedestrian" speed="3.65" length="3.23" shape="199.20,206.50 200.00,206.10 200.80,206.50 201.60,207.70"/>
    </edge>
    <edge id=":J0_4" function="internal">
        <lane id=":J0_4_0" index="0" disallow="pedestrian" speed="6.76" length="5.59" shape="207.70,201.60 205.03,201.98 203.12,203.12 202.78,203.70"/>
    </edge>
    <edge id=":J0_5" function="internal">
        <lane id=":J0_5_0" index="0" disallow="pedestrian" speed="13.89" length="15.40" shape="207.70,201.60 192.30,201.60"/>
    </edge>
    <edge id=":J0_6" function="internal">
        <lane id=":J0_6_0" index="0" disallow="pedestrian" speed="8.21" length="4.23" shape="207.70,201.60 203.63,201.02 203.53,200.96"/>
    </edge>
    <edge id=":J0_7" function="internal">
        <lane id=":J0_7_0" index="0" disallow="pedestrian" speed="3.65" length="1.44" shape="207.70,201.60 206.50,200.80"/>
    </edge>
    <edge id=":J0_19" function="internal">
        <lane id=":J0_19_0" index="0" disallow="pedestrian" speed="6.76" length="4.25" shape="202.78,203.70 201.98,205.03 201.60,207.70"/>
    </edge>
    <edge id=":J0_20" function="internal">
        <lane id=":J0_20_0" index="0" disallow="pedestrian" speed="8.21" length="10.77" shape="203.53,200.96 200.72,199.27 198.98,196.37 198.40,192.30"/>
    </edge>
    <edge id=":J0_21" function="internal">
        <lane id=":J0_21_0" index="0" disallow="pedestrian" speed="3.65" length="3.23" shape="206.50,200.80 206.10,200.00 206.50,199.20 207.70,198.40"/>
    </edge>
    <edge id=":J0_8" function="internal">
        <lane id=":J0_8_0" index="0" disallow="pedestrian" speed="6.76" length="5.59" shape="201.60,192.30 201.98,194.97 203.12,196.88 203.70,197.22"/>
    </edge>
    <edge id=":J0_9" function="internal">
        <lane id=":J0_9_0" index="0" disallow="pedestrian" speed="13.89" length="15.40" shape="201.60,192.30 201.60,207.70"/>
    </edge>
    <edge id=":J0_10" function="internal">
        <lane id=":J0_10_0" index="0" disallow="pedestrian" speed="8.21" length="4.23" shape="201.60,192.30 201.02,196.37 200.96,196.47"/>
    </edge>
    <edge id=":J0_11" function="internal">
        <lane id=":J0_11_0" index="0" disallow="pedestrian" speed="3.65" length="1.44" shape="201.60,192.30 200.80,193.50"/>
    </edge>
    <edge id=":J0_22" function="internal">
        <lane id=":J0_22_0" index="0" disallow="pedestrian" speed="6.76" length="4.25" shape="203.70,197.22 205.03,198.02 207.70,198.40"/>
    </edge>
    <edge id=":J0_23" function="internal">
        <lane id=":J0_23_0" index="0" disallow="pedestrian" speed="8.21" length="10.77" shape="200.96,196.47 199.27,199.28 196.37,201.02 192.30,201.60"/>
    </edge>
    <edge id=":J0_24" function="internal">
        <lane id=":J0_24_0" index="0" disallow="pedestrian" speed="3.65" length="3.23" shape="200.80,193.50 200.00,193.90 199.20,193.50 198.40,192.30"/>
    </edge>
    <edge id=":J0_12" function="internal">
        <lane id=":J0_12_0" index="0" disallow="pedestrian" speed="6.76" length="5.59" shape="192.30,198.40 194.97,198.02 196.88,196.88 197.22,196.30"/>
    </edge>
    <edge id=":J0_13" function="internal">
        <lane id=":J0_13_0" index="0" disallow="pedestrian" speed="13.89" length="15.40" shape="192.30,198.40 207.70,198.40"/>
    </edge>
    <edge id=":J0_14" function="internal">
        <lane id=":J0_14_0" index="0" disallow="pedestrian" speed="8.21" length="4.23" shape="192.30,198.40 196.37,198.98 196.47,199.04"/>
    </edge>
    <edge id=":J0_15" function="internal">
        <lane id=":J0_15_0" index="0" disallow="pedestrian" speed="3.65" length="1.44" shape="192.30,198.40 193.50,199.20"/>
    </edge>
    <edge id=":J0_25" function="internal">
        <lane id=":J0_25_0" index="0" disallow="pedestrian" speed="6.76" length="4.25" shape="197.22,196.30 198.02,194.97 198.40,192.30"/>
    </edge>
    <edge id=":J0_26" function="internal">
        <lane id=":J0_26_0" index="0" disallow="pedestrian" speed="8.21" length="10.77" shape="196.47,199.04 199.28,200.73 201.02,203.63 201.60,207.70"/>
    </edge>
    <edge id=":J0_27" function="internal">
        <lane id=":J0_27_0" index="0" disallow="pedestrian" speed="3.65" length="3.23" shape="193.50,199.20 193.90,200.00 193.50,200.80 192.30,201.60"/>
    </edge>
    <edge id=":J0_c0" function="crossing" crossingEdges="C2N N2C">
        <lane id=":J0_c0_0" index="0" allow="pedestrian" speed="2.78" length="6.40" width="4.00" shape="203.20,205.70 196.80,205.70" outlineShape="203.30,207.70 196.70,207.70 196.68,206.32 196.30,205.20 195.68,204.32 194.80,203.70 205.20,203.70 204.32,204.32 203.70,205.20 203.32,206.32"/>
    </edge>
    <edge id=":J0_c1" function="crossing" crossingEdges="C2E E2C">
        <lane id=":J0_c1_0" index="0" allow="pedestrian" speed="2.78" length="6.40" width="4.00" shape="205.70,196.80 205.70,203.20" outlineShape="207.70,196.70 207.70,203.30 206.32,203.32 205.20,203.70 204.32,204.32 203.70,205.20 203.70,194.80 204.32,195.68 205.20,196.30 206.32,196.68"/>
    </edge>
    <edge id=":J0_c2" function="crossing" crossingEdges="C2S S2C">
        <lane id=":J0_c2_0" index="0" allow="pedestrian" speed="2.78" length="6.40" width="4.00" shape="196.80,194.30 203.20,194.30" outlineShape="196.70,192.30 203.30,192.30 203.32,193.68 203.70,194.80 204.32,195.68 205.20,196.30 194.80,196.30 195.68,195.68 196.30,194.80 196.68,193.68"/>
    </edge>
    <edge id=":J0_c3" function="crossing" crossingEdges="C2W W2C">
        <lane id=":J0_c3_0" index="0" allow="pedestrian" speed="2.78" length="6.40" width="4.00" shape="194.30,203.20 194.30,196.80" outlineShape="192.30,203.30 192.30,196.70 193.68,196.68 194.80,196.30 195.68,195.68 196.30,194.80 196.30,205.20 195.68,204.32 194.80,203.70 193.68,203.32"/>
    </edge>
    <edge id=":J0_w0" function="walkingarea">
        <lane id=":J0_w0_0" index="0" allow="pedestrian" speed="2.78" length="3.67" width="4.00" shape="192.30,203.20 192.30,206.20 193.80,207.70 196.80,207.70 196.68,206.32 196.30,205.20 195.68,204.32 194.80,203.70 193.68,203.32"/>
    </edge>
    <edge id=":J0_w1" function="walkingarea">
        <lane id=":J0_w1_0" index="0" allow="pedestrian" speed="2.78" length="3.67" width="4.00" shape="203.20,207.70 206.20,207.70 207.70,206.20 207.70,203.20 206.32,203.32 205.20,203.70 204.32,204.32 203.70,205.20 203.32,206.32"/>
    </edge>
    <edge id=":J0_w2" function="walkingarea">
        <lane id=":J0_w2_0" index="0" allow="pedestrian" speed="2.78" length="3.67" width="4.00" shape="207.70,196.80 207.70,193.80 206.20,192.30 203.20,192.30 203.32,193.68 203.70,194.80 204.32,195.68 205.20,196.30 206.32,196.68"/>
    </edge>
    <edge id=":J0_w3" function="walkingarea">
        <lane id=":J0_w3_0" index="0" allow="pedestrian" speed="2.78" length="3.67" width="4.00" shape="196.80,192.30 193.80,192.30 192.30,193.80 192.30,196.80 193.68,196.68 194.80,196.30 195.68,195.68 196.30,194.80 196.68,193.68"/>
    </edge>
    <edge id=":JE_0" function="internal">
        <lane id=":JE_0_0" index="0" disallow="pedestrian" speed="3.65" length="4.67" shape="400.00,198.40 401.20,199.20 401.60,200.00 401.20,200.80 400.00,201.60"/>
    </edge>
    <edge id=":JE_w0" function="walkingarea">
        <lane id=":JE_w0_0" index="0" allow="pedestrian" speed="2.78" length="9.40" width="3.00" shape="400.00,203.20 400.00,206.20 400.00,193.80 400.00,196.80"/>
    </edge>
    <edge id=":JN_0" function="internal">
        <lane id=":JN_0_0" index="0" disallow="pedestrian" speed="3.65" length="4.67" shape="201.60,400.00 200.80,401.20 200.00,401.60 199.20,401.20 198.40,400.00"/>
    </edge>
    <edge id=":JN_w0" function="walkingarea">
        <lane id=":JN_w0_0" index="0" allow="pedestrian" speed="2.78" length="9.40" width="3.00" shape="196.80,400.00 193.80,400.00 206.20,400.00 203.20,400.00"/>
    </edge>
    <edge id=":JS_0" function="internal">
        <lane id=":JS_0_0" index="0" disallow="pedestrian" speed="3.65" length="4.67" shape="198.40,0.00 199.20,-1.20 200.00,-1.60 200.80,-1.20 201.60,0.00"/>
    </edge>
    <edge id=":JS_w0" function="walkingarea">
        <lane id=":JS_w0_0" index="0" allow="pedestrian" speed="2.78" length="9.40" width="3.00" shape="203.20,0.00 206.20,0.00 193.80,0.00 196.80,0.00"/>
    </edge>
    <edge id=":JW_0" function="internal">
        <lane id=":JW_0_0" index="0" disallow="pedestrian" speed="3.65" length="4.67" shape="0.00,201.60 -1.20,200.80 -1.60,200.00 -1.20,199.20 0.00,198.40"/>
    </edge>
    <edge id=":JW_w0" function="walkingarea">
        <lane id=":JW_w0_0" index="0" allow="pedestrian" speed="2.78" length="9.40" width="3.00" shape="0.00,196.80 0.00,193.80 0.00,206.20 0.00,203.20"/>
    </edge>

    <edge id="C2E" from="J0" to="JE" priority="-1">
        <lane id="C2E_0" index="0" allow="pedestrian" speed="13.89" length="192.30" width="3.00" shape="207.70,195.30 400.00,195.30"/>
        <lane id="C2E_1" index="1" disallow="pedestrian" speed="13.89" length="192.30" shape="207.70,198.40 400.00,198.40"/>
    </edge>
    <edge id="C2N" from="J0" to="JN" priority="-1">
        <lane id="C2N_0" index="0" allow="pedestrian" speed="13.89" length="192.30" width="3.00" shape="204.70,207.70 204.70,400.00"/>
        <lane id="C2N_1" index="1" disallow="pedestrian" speed="13.89" length="192.30" shape="201.60,207.70 201.60,400.00"/>
    </edge>
    <edge id="C2S" from="J0" to="JS" priority="-1">
        <lane id="C2S_0" index="0" allow="pedestrian" speed="13.89" length="192.30" width="3.00" shape="195.30,192.30 195.30,0.00"/>
        <lane id="C2S_1" index="1" disallow="pedestrian" speed="13.89" length="192.30" shape="198.40,192.30 198.40,0.00"/>
    </edge>
    <edge id="C2W" from="J0" to="JW" priority="-1">
        <lane id="C2W_0" index="0" allow="pedestrian" speed="13.89" length="192.30" width="3.00" shape="192.30,204.70 0.00,204.70"/>
        <lane id="C2W_1" index="1" disallow="pedestrian" speed="13.89" length="192.30" shape="192.30,201.60 0.00,201.60"/>
    </edge>
    <edge id="E2C" from="JE" to="J0" priority="-1">
        <lane id="E2C_0" index="0" allow="pedestrian" speed="13.89" length="192.30" width="3.00" shape="400.00,204.70 207.70,204.70"/>
        <lane id="E2C_1" index="1" disallow="pedestrian" speed="13.89" length="192.30" shape="400.00,201.60 207.70,201.60"/>
    </edge>
    <edge id="N2C" from="JN" to="J0" priority="-1">
        <lane id="N2C_0" index="0" allow="pedestrian" speed="13.89" length="192.30" width="3.00" shape="195.30,400.00 195.30,207.70"/>
        <lane id="N2C_1" index="1" disallow="pedestrian" speed="13.89" length="192.30" shape="198.40,400.00 198.40,207.70"/>
    </edge>
    <edge id="S2C" from="JS" to="J0" priority="-1">
        <lane id="S2C_0" index="0" allow="pedestrian" speed="13.89" length="192.30" width="3.00" shape="204.70,0.00 204.70,192.30"/>
        <lane id="S2C_1" index="1" disallow="pedestrian" speed="13.89" length="192.30" shape="201.60,0.00 201.60,192.30"/>
    </edge>
    <edge id="W2C" from="JW" to="J0" priority="-1">
        <lane id="W2C_0" index="0" allow="pedestrian" speed="13.89" length="192.30" width="3.00" shape="0.00,195.30 192.30,195.30"/>
        <lane id="W2C_1" index="1" disallow="pedestrian" speed="13.89" length="192.30" shape="0.00,198.40 192.30,198.40"/>
    </edge>

    <tlLogic id="J0" type="static" programID="0" offset="0">
        <phase duration="30" state="GGggrrrrGGggrrrrrrrr" name="Vehicle_NS"/>
        <phase duration="3"  state="yyyyrrrryyyyrrrrrrrr" name="Clearance_after_NS"/>
        <phase duration="30" state="rrrrGGggrrrrGGggrrrr" name="Vehicle_EW"/>
        <phase duration="3"  state="rrrryyyyrrrryyyyrrrr" name="Clearance_after_EW"/>
        <phase duration="15" state="rrrrrrrrrrrrrrrrrGrG" name="Ped_EW"/>
        <phase duration="3"  state="rrrrrrrrrrrrrrrrrrrr" name="Clearance_after_Ped_EW"/>
        <phase duration="15" state="rrrrrrrrrrrrrrrrGrGr" name="Ped_NS"/>
        <phase duration="3"  state="rrrrrrrrrrrrrrrrrrrr" name="Clearance_after_Ped_NS"/>
    </tlLogic>

    <junction id="J0" type="traffic_light" x="200.00" y="200.00" incLanes="N2C_0 N2C_1 E2C_0 E2C_1 S2C_0 S2C_1 W2C_0 W2C_1 :J0_w1_0 :J0_w2_0 :J0_w3_0 :J0_w0_0" intLanes=":J0_16_0 :J0_1_0 :J0_17_0 :J0_18_0 :J0_19_0 :J0_5_0 :J0_20_0 :J0_21_0 :J0_22_0 :J0_9_0 :J0_23_0 :J0_24_0 :J0_25_0 :J0_13_0 :J0_26_0 :J0_27_0 :J0_c0_0 :J0_c1_0 :J0_c2_0 :J0_c3_0" shape="193.80,207.70 206.20,207.70 206.37,206.87 206.57,206.57 206.87,206.37 207.24,206.24 207.70,206.20 207.70,193.80 206.87,193.63 206.57,193.43 206.37,193.13 206.24,192.76 206.20,192.30 193.80,192.30 193.63,193.13 193.43,193.43 193.13,193.63 192.76,193.76 192.30,193.80 192.30,206.20 193.13,206.37 193.43,206.57 193.63,206.87 193.76,207.24">
        <request index="0"  response="10010000000000000000" foes="10011000010000100000" cont="1"/>
        <request index="1"  response="01010101000001000000" foes="01010111110001100000" cont="0"/>
        <request index="2"  response="00110100011101000000" foes="00110110011111100000" cont="1"/>
        <request index="3"  response="00010100001000010000" foes="00010100001000010000" cont="1"/>
        <request index="4"  response="00110000001000000000" foes="00110100001000001000" cont="1"/>
        <request index="5"  response="10100000011000000111" foes="10101100011000000111" cont="0"/>
        <request index="6"  response="01100111011000000110" foes="01100111111000000110" cont="1"/>
        <request index="7"  response="00100010000100000100" foes="00100010000100000100" cont="1"/>
        <request index="8"  response="01100000000000000000" foes="01100010000010000100" cont="1"/>
        <request index="9"  response="01010100000001010000" foes="01010110000001111100" cont="0"/>
        <request index="10" response="11000100000001000011" foes="11001110000001100111" cont="1"/>
        <request index="11" response="01000001000001000010" foes="01000001000001000010" cont="1"/>
        <request index="12" response="11000000000000000010" foes="11000000100001000010" cont="1"/>
        <request index="13" response="10100000011100000110" foes="10100000011111000110" cont="0"/>
        <request index="14" response="10010000011000110110" foes="10010000011001111110" cont="1"/>
        <request index="15" response="10000000010000100001" foes="10000000010000100001" cont="1"/>
        <request index="16" response="00000000000000000000" foes="00000100001000011111" cont="0"/>
        <request index="17" response="00000000000000000000" foes="00000010000111110100" cont="0"/>
        <request index="18" response="00000000000000000000" foes="00000001111101000010" cont="0"/>
        <request index="19" response="00000000000000000000" foes="00001111010000100001" cont="0"/>
    </junction>
    <junction id="JE" type="priority" x="400.00" y="200.00" incLanes="C2E_0 C2E_1" intLanes=":JE_0_0" shape="400.00,200.00 400.00,193.80 400.00,200.00">
        <request index="0" response="0" foes="0" cont="0"/>
    </junction>
    <junction id="JN" type="priority" x="200.00" y="400.00" incLanes="C2N_0 C2N_1" intLanes=":JN_0_0" shape="200.00,400.00 206.20,400.00 200.00,400.00">
        <request index="0" response="0" foes="0" cont="0"/>
    </junction>
    <junction id="JS" type="priority" x="200.00" y="0.00" incLanes="C2S_0 C2S_1" intLanes=":JS_0_0" shape="200.00,0.00 193.80,0.00 200.00,0.00">
        <request index="0" response="0" foes="0" cont="0"/>
    </junction>
    <junction id="JW" type="priority" x="0.00" y="200.00" incLanes="C2W_0 C2W_1" intLanes=":JW_0_0" shape="0.00,200.00 0.00,206.20 0.00,200.00">
        <request index="0" response="0" foes="0" cont="0"/>
    </junction>

    <junction id=":J0_16_0" type="internal" x="196.30" y="202.78" incLanes=":J0_0_0" intLanes=":J0_5_0 :J0_10_0 :J0_15_0 :J0_c0_0 :J0_c3_0"/>
    <junction id=":J0_17_0" type="internal" x="199.04" y="203.53" incLanes=":J0_2_0 S2C_1" intLanes=":J0_5_0 :J0_6_0 :J0_7_0 :J0_8_0 :J0_9_0 :J0_13_0 :J0_14_0 :J0_c0_0 :J0_c1_0"/>
    <junction id=":J0_18_0" type="internal" x="199.20" y="206.50" incLanes=":J0_3_0 E2C_1 S2C_1 W2C_1" intLanes=":J0_4_0 :J0_9_0 :J0_14_0 :J0_c0_0 :J0_c0_0"/>
    <junction id=":J0_19_0" type="internal" x="202.78" y="203.70" incLanes=":J0_4_0" intLanes=":J0_3_0 :J0_9_0 :J0_14_0 :J0_c0_0 :J0_c1_0"/>
    <junction id=":J0_20_0" type="internal" x="203.53" y="200.96" incLanes=":J0_6_0 W2C_1" intLanes=":J0_1_0 :J0_2_0 :J0_9_0 :J0_10_0 :J0_11_0 :J0_12_0 :J0_13_0 :J0_c1_0 :J0_c2_0"/>
    <junction id=":J0_21_0" type="internal" x="206.50" y="200.80" incLanes=":J0_7_0 N2C_1 S2C_1 W2C_1" intLanes=":J0_2_0 :J0_8_0 :J0_13_0 :J0_c1_0 :J0_c1_0"/>
    <junction id=":J0_22_0" type="internal" x="203.70" y="197.22" incLanes=":J0_8_0" intLanes=":J0_2_0 :J0_7_0 :J0_13_0 :J0_c1_0 :J0_c2_0"/>
    <junction id=":J0_23_0" type="internal" x="200.96" y="196.47" incLanes=":J0_10_0 N2C_1" intLanes=":J0_0_0 :J0_1_0 :J0_5_0 :J0_6_0 :J0_13_0 :J0_14_0 :J0_15_0 :J0_c2_0 :J0_c3_0"/>
    <junction id=":J0_24_0" type="internal" x="200.80" y="193.50" incLanes=":J0_11_0 E2C_1 N2C_1 W2C_1" intLanes=":J0_1_0 :J0_6_0 :J0_12_0 :J0_c2_0 :J0_c2_0"/>
    <junction id=":J0_25_0" type="internal" x="197.22" y="196.30" incLanes=":J0_12_0" intLanes=":J0_1_0 :J0_6_0 :J0_11_0 :J0_c2_0 :J0_c3_0"/>
    <junction id=":J0_26_0" type="internal" x="196.47" y="199.04" incLanes=":J0_14_0 E2C_1" intLanes=":J0_1_0 :J0_2_0 :J0_3_0 :J0_4_0 :J0_5_0 :J0_9_0 :J0_10_0 :J0_c0_0 :J0_c3_0"/>
    <junction id=":J0_27_0" type="internal" x="193.50" y="199.20" incLanes=":J0_15_0 E2C_1 N2C_1 S2C_1" intLanes=":J0_0_0 :J0_5_0 :J0_10_0 :J0_c3_0 :J0_c3_0"/>

    <connection from="C2E" to="E2C" fromLane="1" toLane="1" via=":JE_0_0" dir="t" state="M"/>
    <connection from="C2N" to="N2C" fromLane="1" toLane="1" via=":JN_0_0" dir="t" state="M"/>
    <connection from="C2S" to="S2C" fromLane="1" toLane="1" via=":JS_0_0" dir="t" state="M"/>
    <connection from="C2W" to="W2C" fromLane="1" toLane="1" via=":JW_0_0" dir="t" state="M"/>
    <connection from="E2C" to="C2N" fromLane="1" toLane="1" via=":J0_4_0" tl="J0" linkIndex="4" dir="r" state="o"/>
    <connection from="E2C" to="C2W" fromLane="1" toLane="1" via=":J0_5_0" tl="J0" linkIndex="5" dir="s" state="o"/>
    <connection from="E2C" to="C2S" fromLane="1" toLane="1" via=":J0_6_0" tl="J0" linkIndex="6" dir="l" state="o"/>
    <connection from="E2C" to="C2E" fromLane="1" toLane="1" via=":J0_7_0" tl="J0" linkIndex="7" dir="t" state="o"/>
    <connection from="N2C" to="C2W" fromLane="1" toLane="1" via=":J0_0_0" tl="J0" linkIndex="0" dir="r" state="o"/>
    <connection from="N2C" to="C2S" fromLane="1" toLane="1" via=":J0_1_0" tl="J0" linkIndex="1" dir="s" state="o"/>
    <connection from="N2C" to="C2E" fromLane="1" toLane="1" via=":J0_2_0" tl="J0" linkIndex="2" dir="l" state="o"/>
    <connection from="N2C" to="C2N" fromLane="1" toLane="1" via=":J0_3_0" tl="J0" linkIndex="3" dir="t" state="o"/>
    <connection from="S2C" to="C2E" fromLane="1" toLane="1" via=":J0_8_0" tl="J0" linkIndex="8" dir="r" state="o"/>
    <connection from="S2C" to="C2N" fromLane="1" toLane="1" via=":J0_9_0" tl="J0" linkIndex="9" dir="s" state="o"/>
    <connection from="S2C" to="C2W" fromLane="1" toLane="1" via=":J0_10_0" tl="J0" linkIndex="10" dir="l" state="o"/>
    <connection from="S2C" to="C2S" fromLane="1" toLane="1" via=":J0_11_0" tl="J0" linkIndex="11" dir="t" state="o"/>
    <connection from="W2C" to="C2S" fromLane="1" toLane="1" via=":J0_12_0" tl="J0" linkIndex="12" dir="r" state="o"/>
    <connection from="W2C" to="C2E" fromLane="1" toLane="1" via=":J0_13_0" tl="J0" linkIndex="13" dir="s" state="o"/>
    <connection from="W2C" to="C2N" fromLane="1" toLane="1" via=":J0_14_0" tl="J0" linkIndex="14" dir="l" state="o"/>
    <connection from="W2C" to="C2W" fromLane="1" toLane="1" via=":J0_15_0" tl="J0" linkIndex="15" dir="t" state="o"/>

    <connection from=":J0_0" to="C2W" fromLane="0" toLane="1" via=":J0_16_0" dir="r" state="m"/>
    <connection from=":J0_16" to="C2W" fromLane="0" toLane="1" dir="r" state="m"/>
    <connection from=":J0_1" to="C2S" fromLane="0" toLane="1" dir="s" state="M"/>
    <connection from=":J0_2" to="C2E" fromLane="0" toLane="1" via=":J0_17_0" dir="l" state="m"/>
    <connection from=":J0_17" to="C2E" fromLane="0" toLane="1" dir="l" state="m"/>
    <connection from=":J0_3" to="C2N" fromLane="0" toLane="1" via=":J0_18_0" dir="t" state="m"/>
    <connection from=":J0_18" to="C2N" fromLane="0" toLane="1" dir="t" state="m"/>
    <connection from=":J0_4" to="C2N" fromLane="0" toLane="1" via=":J0_19_0" dir="r" state="m"/>
    <connection from=":J0_19" to="C2N" fromLane="0" toLane="1" dir="r" state="m"/>
    <connection from=":J0_5" to="C2W" fromLane="0" toLane="1" dir="s" state="M"/>
    <connection from=":J0_6" to="C2S" fromLane="0" toLane="1" via=":J0_20_0" dir="l" state="m"/>
    <connection from=":J0_20" to="C2S" fromLane="0" toLane="1" dir="l" state="m"/>
    <connection from=":J0_7" to="C2E" fromLane="0" toLane="1" via=":J0_21_0" dir="t" state="m"/>
    <connection from=":J0_21" to="C2E" fromLane="0" toLane="1" dir="t" state="m"/>
    <connection from=":J0_8" to="C2E" fromLane="0" toLane="1" via=":J0_22_0" dir="r" state="m"/>
    <connection from=":J0_22" to="C2E" fromLane="0" toLane="1" dir="r" state="m"/>
    <connection from=":J0_9" to="C2N" fromLane="0" toLane="1" dir="s" state="M"/>
    <connection from=":J0_10" to="C2W" fromLane="0" toLane="1" via=":J0_23_0" dir="l" state="m"/>
    <connection from=":J0_23" to="C2W" fromLane="0" toLane="1" dir="l" state="m"/>
    <connection from=":J0_11" to="C2S" fromLane="0" toLane="1" via=":J0_24_0" dir="t" state="m"/>
    <connection from=":J0_24" to="C2S" fromLane="0" toLane="1" dir="t" state="m"/>
    <connection from=":J0_12" to="C2S" fromLane="0" toLane="1" via=":J0_25_0" dir="r" state="m"/>
    <connection from=":J0_25" to="C2S" fromLane="0" toLane="1" dir="r" state="m"/>
    <connection from=":J0_13" to="C2E" fromLane="0" toLane="1" dir="s" state="M"/>
    <connection from=":J0_14" to="C2N" fromLane="0" toLane="1" via=":J0_26_0" dir="l" state="m"/>
    <connection from=":J0_26" to="C2N" fromLane="0" toLane="1" dir="l" state="m"/>
    <connection from=":J0_15" to="C2W" fromLane="0" toLane="1" via=":J0_27_0" dir="t" state="m"/>
    <connection from=":J0_27" to="C2W" fromLane="0" toLane="1" dir="t" state="m"/>
    <connection from=":JE_0" to="E2C" fromLane="0" toLane="1" dir="t" state="M"/>
    <connection from=":JN_0" to="N2C" fromLane="0" toLane="1" dir="t" state="M"/>
    <connection from=":JS_0" to="S2C" fromLane="0" toLane="1" dir="t" state="M"/>
    <connection from=":JW_0" to="W2C" fromLane="0" toLane="1" dir="t" state="M"/>

    <connection from=":J0_c0" to=":J0_w0" fromLane="0" toLane="0" dir="s" state="M"/>
    <connection from=":J0_c1" to=":J0_w1" fromLane="0" toLane="0" dir="s" state="M"/>
    <connection from=":J0_c2" to=":J0_w2" fromLane="0" toLane="0" dir="s" state="M"/>
    <connection from=":J0_c3" to=":J0_w3" fromLane="0" toLane="0" dir="s" state="M"/>
    <connection from=":J0_w0" to=":J0_c3" fromLane="0" toLane="0" tl="J0" linkIndex="19" dir="s" state="M"/>
    <connection from=":J0_w0" to="C2W" fromLane="0" toLane="0" dir="s" state="M"/>
    <connection from="N2C" to=":J0_w0" fromLane="0" toLane="0" dir="s" state="M"/>
    <connection from=":J0_w1" to=":J0_c0" fromLane="0" toLane="0" tl="J0" linkIndex="16" dir="s" state="M"/>
    <connection from=":J0_w1" to="C2N" fromLane="0" toLane="0" dir="s" state="M"/>
    <connection from="E2C" to=":J0_w1" fromLane="0" toLane="0" dir="s" state="M"/>
    <connection from=":J0_w2" to=":J0_c1" fromLane="0" toLane="0" tl="J0" linkIndex="17" dir="s" state="M"/>
    <connection from=":J0_w2" to="C2E" fromLane="0" toLane="0" dir="s" state="M"/>
    <connection from="S2C" to=":J0_w2" fromLane="0" toLane="0" dir="s" state="M"/>
    <connection from=":J0_w3" to=":J0_c2" fromLane="0" toLane="0" tl="J0" linkIndex="18" dir="s" state="M"/>
    <connection from=":J0_w3" to="C2S" fromLane="0" toLane="0" dir="s" state="M"/>
    <connection from="W2C" to=":J0_w3" fromLane="0" toLane="0" dir="s" state="M"/>
    <connection from=":JE_w0" to="E2C" fromLane="0" toLane="0" dir="s" state="M"/>
    <connection from="C2E" to=":JE_w0" fromLane="0" toLane="0" dir="s" state="M"/>
    <connection from=":JN_w0" to="N2C" fromLane="0" toLane="0" dir="s" state="M"/>
    <connection from="C2N" to=":JN_w0" fromLane="0" toLane="0" dir="s" state="M"/>
    <connection from=":JS_w0" to="S2C" fromLane="0" toLane="0" dir="s" state="M"/>
    <connection from="C2S" to=":JS_w0" fromLane="0" toLane="0" dir="s" state="M"/>
    <connection from=":JW_w0" to="W2C" fromLane="0" toLane="0" dir="s" state="M"/>
    <connection from="C2W" to=":JW_w0" fromLane="0" toLane="0" dir="s" state="M"/>
</net>
