<?xml version="1.0" encoding="UTF-8"?>
<nodes xmlns:xsi="http://www.w3.org/2001/XMLSchema-instance"
       xsi:noNamespaceSchemaLocation="http://sumo.dlr.de/xsd/nodes_file.xsd">

    <!-- Center intersection: traffic light controlled -->
    <node id="J0" x="0.0"   y="0.0"   type="traffic_light"/>

    <!-- Boundary nodes: priority (uncontrolled endpoints) -->
    <node id="JN" x="0.0"   y="200.0"  type="priority"/>
    <node id="JS" x="0.0"   y="-200.0" type="priority"/>
    <node id="JE" x="200.0" y="0.0"    type="priority"/>
    <node id="JW" x="-200.0" y="0.0"   type="priority"/>

</nodes>
